kojic_acid.sdf
     RDKit          3D

 16 16  0  0  0  0  0  0  0  0999 V2000
   -0.1145   -0.9888   -0.5483 C   0  0  0  0  0  0  0  0  0  0  0  0
   -0.8276    0.0315   -0.0499 C   0  0  0  0  0  0  0  0  0  0  0  0
   -0.2428    1.1010    0.6124 O   0  0  0  0  0  0  0  0  0  0  0  0
    1.1231    1.1121    0.7662 C   0  0  0  0  0  0  0  0  0  0  0  0
    1.9573    0.1634    0.3242 C   0  0  0  0  0  0  0  0  0  0  0  0
    1.3547   -0.9986   -0.3926 C   0  0  0  0  0  0  0  0  0  0  0  0
    2.0142   -1.9296   -0.8394 O   0  0  0  0  0  0  0  0  0  0  0  0
    3.3245    0.2132    0.5007 O   0  0  0  0  0  0  0  0  0  0  0  0
   -2.3213    0.1164   -0.1707 C   0  0  0  0  0  0  0  0  0  0  0  0
   -2.9212    0.1558    1.1181 O   0  0  0  0  0  0  0  0  0  0  0  0
   -0.5519   -1.8294   -1.0711 H   0  0  0  0  0  0  0  0  0  0  0  0
    1.4297    2.0017    1.2983 H   0  0  0  0  0  0  0  0  0  0  0  0
    3.5530    1.0273    0.9773 H   0  0  0  0  0  0  0  0  0  0  0  0
   -2.6076    1.0245   -0.7104 H   0  0  0  0  0  0  0  0  0  0  0  0
   -2.7369   -0.7408   -0.7103 H   0  0  0  0  0  0  0  0  0  0  0  0
   -2.4327   -0.4597    1.6903 H   0  0  0  0  0  0  0  0  0  0  0  0
  1  2  2  0
  2  3  1  0
  3  4  1  0
  4  5  2  0
  5  6  1  0
  6  7  2  0
  5  8  1  0
  2  9  1  0
  9 10  1  0
  6  1  1  0
  1 11  1  0
  4 12  1  0
  8 13  1  0
  9 14  1  0
  9 15  1  0
 10 16  1  0
M  END
$$$$
kojic_acid.sdf
     RDKit          3D

 16 16  0  0  0  0  0  0  0  0999 V2000
   -0.0808   -0.9212   -0.7314 C   0  0  0  0  0  0  0  0  0  0  0  0
   -0.8305   -0.2256    0.1357 C   0  0  0  0  0  0  0  0  0  0  0  0
   -0.2853    0.6340    1.0796 O   0  0  0  0  0  0  0  0  0  0  0  0
    1.0811    0.7819    1.1193 C   0  0  0  0  0  0  0  0  0  0  0  0
    1.9495    0.1538    0.3171 C   0  0  0  0  0  0  0  0  0  0  0  0
    1.3893   -0.7825   -0.7016 C   0  0  0  0  0  0  0  0  0  0  0  0
    2.0855   -1.4196   -1.4831 O   0  0  0  0  0  0  0  0  0  0  0  0
    3.3157    0.3303    0.3924 O   0  0  0  0  0  0  0  0  0  0  0  0
   -2.3271   -0.3139    0.1727 C   0  0  0  0  0  0  0  0  0  0  0  0
   -2.8899    0.9665   -0.0813 O   0  0  0  0  0  0  0  0  0  0  0  0
   -0.4911   -1.5927   -1.4744 H   0  0  0  0  0  0  0  0  0  0  0  0
    1.3590    1.4809    1.8955 H   0  0  0  0  0  0  0  0  0  0  0  0
    3.5159    0.9685    1.0954 H   0  0  0  0  0  0  0  0  0  0  0  0
   -2.7182   -1.0099   -0.5759 H   0  0  0  0  0  0  0  0  0  0  0  0
   -2.6640   -0.6526    1.1577 H   0  0  0  0  0  0  0  0  0  0  0  0
   -2.4090    1.6021    0.4769 H   0  0  0  0  0  0  0  0  0  0  0  0
  1  2  2  0
  2  3  1  0
  3  4  1  0
  4  5  2  0
  5  6  1  0
  6  7  2  0
  5  8  1  0
  2  9  1  0
  9 10  1  0
  6  1  1  0
  1 11  1  0
  4 12  1  0
  8 13  1  0
  9 14  1  0
  9 15  1  0
 10 16  1  0
M  END
$$$$
